Simulacoes/57/06 - EE/ieee57_17_1700_EE.txt
================================================================================= 
=== UFF - Doutorado em Computação - Aplicaçoes em Sistemas de Potencia        === 
=== ESTIMADOR DE ESTADO MÍNIMOS QUADRADOS PONDERADOS INCLUINDO MEDIDAS DE PMU === 
=== Desenvolvido por: Rui Menezes de Moraes - 2009                            === 
================================================================================= 
Arquivo de medidores:          F:\Documents\Uff\Artigos\SimSEP\VERSAO WELDAN V2\Codigos\Med\ieee57_17_1700.med
Arquivo do sistema:            F:\Documents\Uff\Artigos\SimSEP\VERSAO WELDAN V2\Codigos\Carga\ieee57_17_1700.txt
Tolerância entre iteraçoes:     1.00e-04
Limite de iteraçoes:           100

--- DADOS DA REDE --------------------------------------------------------------- 
Data do caso:                  08/25/93
Origem:                        UW ARCHIVE          
MVA base:                      100
Ano:                           1961
Estação:                       W
Identificação:                 IEEE 57 Bus Test Case
Número de barras:              57 
Número de ramos:               80 
Referência na barra:           1

--- TELEMEDIDAS ------------------------------------------------------------------
    Tipo 1 = Fluxo de potencia ativa        Tipo  6 = Módulo da tensão            
    Tipo 2 = Injeção de potencia ativa      Tipo  7 = Corrente de ramo (real)     
    Tipo 3 = Ângulo de fase da tensão       Tipo  8 = Corrente de ramo (imag)     
    Tipo 4 = Fluxo de potencia reativa      Tipo  9 = Injeção de corrente (real)  
    Tipo 5 = Injeção de potencia reativa    Tipo 10 = Injeção de corrente (imag)  
----------------------------------------------------------------------------------
   N    D    P TP  PN ST   Exa   FS       DP      V_Ref      V_Med          E(%) 
----------------------------------------------------------------------------------
   1    0    1  6   0  0 0.015 01.1  0.00520   +1.04000   +1.02732     -1.219231 
   2    0    2  6   0  0 0.015 01.1  0.00505   +1.01000   +0.99656     -1.330693 
   3    0    3  6   0  0 0.015 01.1  0.00505   +1.01012   +0.99641     -1.357264 
   4    0    4  6   0  0 0.015 01.1  0.00498   +0.99497   +1.00042     +0.547755 
   5    0    5  6   0  0 0.015 01.1  0.00489   +0.97887   +0.97815     -0.073554 
   6    0    6  6   0  0 0.015 01.1  0.00490   +0.98000   +0.99255     +1.280612 
   7    0    7  6   0  0 0.015 01.1  0.00490   +0.98014   +0.97753     -0.266288 
   8    0    8  6   0  0 0.015 01.1  0.00502   +1.00500   +1.01616     +1.110448 
   9    0    9  6   0  0 0.015 01.1  0.00490   +0.97942   +0.98559     +0.629965 
  10    0   10  6   0  0 0.015 01.1  0.00490   +0.97897   +0.99196     +1.326905 
  11    0   11  6   0  0 0.015 01.1  0.00485   +0.96915   +0.96858     -0.058814 
  12    0   12  6   0  0 0.015 01.1  0.00507   +1.01500   +1.01301     -0.196059 
  13    0   13  6   0  0 0.015 01.1  0.00488   +0.97516   +0.97552     +0.036917 
  14    0   14  6   0  0 0.015 01.1  0.00483   +0.96613   +0.96684     +0.073489 
  15    0   15  6   0  0 0.015 01.1  0.00495   +0.99022   +0.98930     -0.092909 
  16    0   16  6   0  0 0.015 01.1  0.00507   +1.01477   +1.02873     +1.375681 
  17    0   17  6   0  0 0.015 01.1  0.00509   +1.01836   +1.02924     +1.068384 
  18    0   18  6   0  0 0.015 01.1  0.00504   +1.00724   +1.00136     -0.583773 
  19    0   19  6   0  0 0.015 01.1  0.00480   +0.96003   +0.96638     +0.661438 
  20    0   20  6   0  0 0.015 01.1  0.00473   +0.94654   +0.95661     +1.063875 
  21    0   21  6   0  0 0.015 01.1  0.00496   +0.99143   +0.98571     -0.576944 
  22    0   22  6   0  0 0.015 01.1  0.00496   +0.99157   +0.98136     -1.029680 
  23    0   23  6   0  0 0.015 01.1  0.00495   +0.98944   +0.97689     -1.268394 
  24    0   24  6   0  0 0.015 01.1  0.00486   +0.97286   +0.98010     +0.744198 
  25    0   25  6   0  0 0.015 01.1  0.00470   +0.93902   +0.93998     +0.102234 
  26    0   26  6   0  0 0.015 01.1  0.00468   +0.93627   +0.93498     -0.137781 
  27    0   27  6   0  0 0.015 01.1  0.00482   +0.96470   +0.97316     +0.876957 
  28    0   28  6   0  0 0.015 01.1  0.00492   +0.98327   +0.97497     -0.844122 
  29    0   29  6   0  0 0.015 01.1  0.00500   +0.99948   +0.99368     -0.580302 
  30    0   30  6   0  0 0.015 01.1  0.00457   +0.91440   +0.92075     +0.694444 
  31    0   31  6   0  0 0.015 01.1  0.00441   +0.88226   +0.88120     -0.120146 
  32    0   32  6   0  0 0.015 01.1  0.00452   +0.90408   +0.90151     -0.284267 
  33    0   33  6   0  0 0.015 01.1  0.00451   +0.90116   +0.89445     -0.744596 
  34    0   34  6   0  0 0.015 01.1  0.00463   +0.92628   +0.92853     +0.242907 
  35    0   35  6   0  0 0.015 01.1  0.00468   +0.93598   +0.94464     +0.925233 
  36    0   36  6   0  0 0.015 01.1  0.00474   +0.94881   +0.93601     -1.349058 
  37    0   37  6   0  0 0.015 01.1  0.00480   +0.96040   +0.95028     -1.053728 
  38    0   38  6   0  0 0.015 01.1  0.00498   +0.99575   +0.99549     -0.026111 
  39    0   39  6   0  0 0.015 01.1  0.00479   +0.95790   +0.96916     +1.175488 
  40    0   40  6   0  0 0.015 01.1  0.00473   +0.94544   +0.94013     -0.561643 
  41    0   41  6   0  0 0.015 01.1  0.00490   +0.97966   +0.97328     -0.651246 
  42    0   42  6   0  0 0.015 01.1  0.00470   +0.94033   +0.92805     -1.305925 
  43    0   43  6   0  0 0.015 01.1  0.00500   +1.00096   +0.98776     -1.318734 
  44    0   44  6   0  0 0.015 01.1  0.00502   +1.00348   +1.00587     +0.238171 
  45    0   45  6   0  0 0.015 01.1  0.00517   +1.03375   +1.04420     +1.010883 
  46    0   46  6   0  0 0.015 01.1  0.00526   +1.05193   +1.04711     -0.458205 
  47    0   47  6   0  0 0.015 01.1  0.00510   +1.01997   +1.01533     -0.454915 
  48    0   48  6   0  0 0.015 01.1  0.00506   +1.01286   +0.99893     -1.375313 
  49    0   49  6   0  0 0.015 01.1  0.00511   +1.02299   +1.01965     -0.326494 
  50    0   50  6   0  0 0.015 01.1  0.00503   +1.00690   +1.01796     +1.098421 
  51    0   51  6   0  0 0.015 01.1  0.00521   +1.04266   +1.02781     -1.424242 
  52    0   52  6   0  0 0.015 01.1  0.00481   +0.96112   +0.95164     -0.986349 
  53    0   53  6   0  0 0.015 01.1  0.00474   +0.94866   +0.95808     +0.992980 
  54    0   54  6   0  0 0.015 01.1  0.00491   +0.98288   +0.96851     -1.462030 
  55    0   55  6   0  0 0.015 01.1  0.00514   +1.02835   +1.02732     -0.100160 
  56    0   56  6   0  0 0.015 01.1  0.00470   +0.94076   +0.95011     +0.993877 
  57    0   57  6   0  0 0.015 01.1  0.00468   +0.93548   +0.94672     +1.201522 
  58    0    1  2   0  0 0.020 01.0  0.00812   +0.95857   +0.95891     +0.035470 
  59    0    2  2   0  0 0.020 01.0  0.00198   -0.03700   -0.03298    -10.864865 
  60    0    3  2   0  0 0.020 01.0  0.02774   +3.90100   +3.91226     +0.288644 
  61    0    4  2   0  0 0.020 01.0  0.00173   -0.00000   +0.00285     +0.000000 
  62    0    5  2   0  0 0.020 01.0  0.00279   -0.15900   -0.16214     +1.974843 
  63    0    6  2   0  0 0.020 01.0  0.00783   -0.91500   -0.93344     +2.015301 
  64    0    7  2   0  0 0.020 01.0  0.00173   +0.00000   +0.00202     +0.000000 
  65    0    8  2   0  0 0.020 01.0  0.00953   +1.17000   +1.18383     +1.182051 
  66    0    9  2   0  0 0.020 01.0  0.00867   -1.04100   -1.04636     +0.514890 
  67    0   10  2   0  0 0.020 01.0  0.00249   -0.11300   -0.11529     +2.026549 
  68    0   11  2   0  0 0.020 01.0  0.00173   +0.00000   -0.00463     +0.000000 
  69    0   12  2   0  0 0.020 01.0  0.01219   +1.56800   +1.55885     -0.583546 
  70    0   13  2   0  0 0.020 01.0  0.00320   -0.22000   -0.22256     +1.163636 
  71    0   14  2   0  0 0.020 01.0  0.00259   -0.12800   -0.13135     +2.617187 
  72    0   15  2   0  0 0.020 01.0  0.00352   -0.26800   -0.25925     -3.264925 
  73    0   16  2   0  0 0.020 01.0  0.00523   -0.52500   -0.51997     -0.958095 
  74    0   17  2   0  0 0.020 01.0  0.00515   -0.51200   -0.51430     +0.449219 
  75    0   18  2   0  0 0.020 01.0  0.00395   -0.33200   -0.32904     -0.891566 
  76    0   19  2   0  0 0.020 01.0  0.00200   -0.04000   -0.03880     -3.000000 
  77    0   20  2   0  0 0.020 01.0  0.00192   -0.02800   -0.02246    -19.785714 
  78    0   21  2   0  0 0.020 01.0  0.00173   -0.00000   +0.00275     +0.000000 
  79    0   22  2   0  0 0.020 01.0  0.00173   -0.00000   +0.00228     +0.000000 
  80    0   23  2   0  0 0.020 01.0  0.00225   -0.07700   -0.07187     -6.662338 
  81    0   24  2   0  0 0.020 01.0  0.00173   +0.00000   -0.00509     +0.000000 
  82    0   25  2   0  0 0.020 01.0  0.00225   -0.07700   -0.07604     -1.246753 
  83    0   26  2   0  0 0.020 01.0  0.00173   +0.00000   +0.00490     +0.000000 
  84    0   27  2   0  0 0.020 01.0  0.00249   -0.11300   -0.11250     -0.442478 
  85    0   28  2   0  0 0.020 01.0  0.00211   -0.05600   -0.06153     +9.875000 
  86    0   29  2   0  0 0.020 01.0  0.00311   -0.20700   -0.20579     -0.584541 
  87    0   30  2   0  0 0.020 01.0  0.00203   -0.04400   -0.04731     +7.522727 
  88    0   31  2   0  0 0.020 01.0  0.00221   -0.07100   -0.07179     +1.112676 
  89    0   32  2   0  0 0.020 01.0  0.00187   -0.02000   -0.02449    +22.450000 
  90    0   33  2   0  0 0.020 01.0  0.00204   -0.04600   -0.05056     +9.913043 
  91    0   34  2   0  0 0.020 01.0  0.00173   -0.00000   +0.00314     +0.000000 
  92    0   35  2   0  0 0.020 01.0  0.00222   -0.07300   -0.07626     +4.465753 
  93    0   36  2   0  0 0.020 01.0  0.00173   -0.00000   -0.00000     +0.000000 
  94    0   37  2   0  0 0.020 01.0  0.00173   +0.00000   +0.00024     +0.000000 
  95    0   38  2   0  0 0.020 01.0  0.00287   -0.17100   -0.17928     +4.842105 
  96    0   39  2   0  0 0.020 01.0  0.00173   +0.00000   +0.00392     +0.000000 
  97    0   40  2   0  0 0.020 01.0  0.00173   +0.00000   -0.00041     +0.000000 
  98    0   41  2   0  0 0.020 01.0  0.00225   -0.07700   -0.07053     -8.402597 
  99    0   42  2   0  0 0.020 01.0  0.00231   -0.08700   -0.08604     -1.103448 
 100    0   43  2   0  0 0.020 01.0  0.00189   -0.02400   -0.01975    -17.708333 
 101    0   44  2   0  0 0.020 01.0  0.00271   -0.14600   -0.15020     +2.876712 
 102    0   45  2   0  0 0.020 01.0  0.00173   +0.00000   -0.00398     +0.000000 
 103    0   46  2   0  0 0.020 01.0  0.00173   +0.00000   -0.00363     +0.000000 
 104    0   47  2   0  0 0.020 01.0  0.00415   -0.36200   -0.37296     +3.027624 
 105    0   48  2   0  0 0.020 01.0  0.00173   -0.00000   -0.00312     +0.000000 
 106    0   49  2   0  0 0.020 01.0  0.00320   -0.22000   -0.21293     -3.213636 
 107    0   50  2   0  0 0.020 01.0  0.00344   -0.25600   -0.25041     -2.183594 
 108    0   51  2   0  0 0.020 01.0  0.00320   -0.22000   -0.21171     -3.768182 
 109    0   52  2   0  0 0.020 01.0  0.00213   -0.06000   -0.06537     +8.950000 
 110    0   53  2   0  0 0.020 01.0  0.00336   -0.24400   -0.25267     +3.553279 
 111    0   54  2   0  0 0.020 01.0  0.00207   -0.05000   -0.04408    -11.840000 
 112    0   55  2   0  0 0.020 01.0  0.00229   -0.08300   -0.08270     -0.361446 
 113    0   56  2   0  0 0.020 01.0  0.00235   -0.09300   -0.08894     -4.365591 
 114    0   57  2   0  0 0.020 01.0  0.00228   -0.08200   -0.08460     +3.170732 
 115    0    1  5   0  0 0.020 01.0  0.01321   +1.72108   +1.69085     -1.756455 
 116    0    2  5   0  0 0.020 01.0  0.00931   -1.13662   -1.13743     +0.071264 
 117    0    3  5   0  0 0.020 01.0  0.00411   -0.35600   -0.35809     +0.587079 
 118    0    4  5   0  0 0.020 01.0  0.00173   +0.00000   +0.00432     +0.000000 
 119    0    5  5   0  0 0.020 01.0  0.00206   -0.04900   -0.05321     +8.591837 
 120    0    6  5   0  0 0.020 01.0  0.00243   +0.10472   +0.10039     -4.134836 
 121    0    7  5   0  0 0.020 01.0  0.00173   +0.00000   -0.00364     +0.000000 
 122    0    8  5   0  0 0.020 01.0  0.00660   +0.72937   +0.74749     +2.484336 
 123    0    9  5   0  0 0.020 01.0  0.00263   -0.13400   -0.13008     -2.925373 
 124    0   10  5   0  0 0.020 01.0  0.00203   -0.04500   -0.04858     +7.955556 
 125    0   11  5   0  0 0.020 01.0  0.00173   +0.00000   +0.00172     +0.000000 
 126    0   12  5   0  0 0.020 01.0  0.00575   +0.60291   +0.59323     -1.605546 
 127    0   13  5   0  0 0.020 01.0  0.00192   -0.02800   -0.02858     +2.071429 
 128    0   14  5   0  0 0.020 01.0  0.00217   -0.06500   -0.05928     -8.800000 
 129    0   15  5   0  0 0.020 01.0  0.00214   -0.06100   -0.05995     -1.721311 
 130    0   16  5   0  0 0.020 01.0  0.00198   -0.03700   -0.04119    +11.324324 
 131    0   17  5   0  0 0.020 01.0  0.00239   -0.09800   -0.09615     -1.887755 
 132    0   18  5   0  0 0.020 01.0  0.00253   -0.12000   -0.12480     +4.000000 
 133    0   19  5   0  0 0.020 01.0  0.00178   -0.00700   -0.01145    +63.571429 
 134    0   20  5   0  0 0.020 01.0  0.00181   -0.01200   -0.01511    +25.916667 
 135    0   21  5   0  0 0.020 01.0  0.00173   +0.00000   +0.00027     +0.000000 
 136    0   22  5   0  0 0.020 01.0  0.00173   +0.00000   +0.00173     +0.000000 
 137    0   23  5   0  0 0.020 01.0  0.00191   -0.02600   -0.02647     +1.807692 
 138    0   24  5   0  0 0.020 01.0  0.00173   -0.00000   -0.00296     +0.000000 
 139    0   25  5   0  0 0.020 01.0  0.00199   -0.03900   -0.04235     +8.589744 
 140    0   26  5   0  0 0.020 01.0  0.00173   +0.00000   +0.00406     +0.000000 
 141    0   27  5   0  0 0.020 01.0  0.00177   -0.00600   -0.00811    +35.166667 
 142    0   28  5   0  0 0.020 01.0  0.00192   -0.02800   -0.03088    +10.285714 
 143    0   29  5   0  0 0.020 01.0  0.00195   -0.03200   -0.02737    -14.468750 
 144    0   30  5   0  0 0.020 01.0  0.00188   -0.02200   -0.02629    +19.500000 
 145    0   31  5   0  0 0.020 01.0  0.00197   -0.03500   -0.03305     -5.571429 
 146    0   32  5   0  0 0.020 01.0  0.00180   -0.01000   -0.01186    +18.600000 
 147    0   33  5   0  0 0.020 01.0  0.00189   -0.02300   -0.02497     +8.565217 
 148    0   34  5   0  0 0.020 01.0  0.00173   -0.00000   +0.00339     +0.000000 
 149    0   35  5   0  0 0.020 01.0  0.00198   -0.03700   -0.03640     -1.621622 
 150    0   36  5   0  0 0.020 01.0  0.00173   +0.00000   +0.00151     +0.000000 
 151    0   37  5   0  0 0.020 01.0  0.00173   +0.00000   +0.00359     +0.000000 
 152    0   38  5   0  0 0.020 01.0  0.00230   -0.08500   -0.08369     -1.541176 
 153    0   39  5   0  0 0.020 01.0  0.00173   -0.00000   -0.00176     +0.000000 
 154    0   40  5   0  0 0.020 01.0  0.00173   -0.00000   -0.00300     +0.000000 
 155    0   41  5   0  0 0.020 01.0  0.00198   -0.03700   -0.03551     -4.027027 
 156    0   42  5   0  0 0.020 01.0  0.00209   -0.05400   -0.05698     +5.518519 
 157    0   43  5   0  0 0.020 01.0  0.00181   -0.01200   -0.00682    -43.166667 
 158    0   44  5   0  0 0.020 01.0  0.00188   -0.02200   -0.02582    +17.363636 
 159    0   45  5   0  0 0.020 01.0  0.00173   +0.00000   +0.00306     +0.000000 
 160    0   46  5   0  0 0.020 01.0  0.00173   +0.00000   +0.00441     +0.000000 
 161    0   47  5   0  0 0.020 01.0  0.00268   -0.14200   -0.14254     +0.380282 
 162    0   48  5   0  0 0.020 01.0  0.00173   +0.00000   +0.00118     +0.000000 
 163    0   49  5   0  0 0.020 01.0  0.00243   -0.10400   -0.10530     +1.250000 
 164    0   50  5   0  0 0.020 01.0  0.00259   -0.12800   -0.12072     -5.687500 
 165    0   51  5   0  0 0.020 01.0  0.00217   -0.06500   -0.06301     -3.061538 
 166    0   52  5   0  0 0.020 01.0  0.00191   -0.02700   -0.02388    -11.555556 
 167    0   53  5   0  0 0.020 01.0  0.00255   -0.12200   -0.12330     +1.065574 
 168    0   54  5   0  0 0.020 01.0  0.00185   -0.01700   -0.02089    +22.882353 
 169    0   55  5   0  0 0.020 01.0  0.00201   -0.04100   -0.04107     +0.170732 
 170    0   56  5   0  0 0.020 01.0  0.00191   -0.02700   -0.02300    -14.814815 
 171    0   57  5   0  0 0.020 01.0  0.00189   -0.02400   -0.02198     -8.416667 
 172    1    2  1   0  0 0.020 01.0  0.00442   -0.40352   -0.40495     +0.354381 
 173    2    3  1   0  0 0.020 01.0  0.00476   -0.45360   -0.45369     +0.019841 
 174    3    4  1   0  0 0.020 01.0  0.01289   +1.67327   +1.64668     -1.589104 
 175    4    5  1   0  0 0.020 01.0  0.00530   +0.53483   +0.54113     +1.177944 
 176    4    6  1   0  0 0.020 01.0  0.00639   +0.69855   +0.68723     -1.620500 
 177    6    7  1   0  0 0.020 01.0  0.00297   +0.18527   +0.18843     +1.705619 
 178    6    8  1   0  0 0.020 01.0  0.00221   -0.07109   -0.07606     +6.991138 
 179    8    9  1   0  0 0.020 01.0  0.00607   +0.65112   +0.65460     +0.534464 
 180    9   10  1   0  0 0.020 01.0  0.00206   -0.04959   -0.04621     -6.815890 
 181    9   11  1   0  0 0.020 01.0  0.00248   -0.11144   -0.11026     -1.058866 
 182    9   12  1   0  0 0.020 01.0  0.00344   -0.25614   -0.25234     -1.483564 
 183    9   13  1   0  0 0.020 01.0  0.00334   -0.24071   -0.24217     +0.606539 
 184   13   14  1   0  0 0.020 01.0  0.00233   -0.08968   -0.09280     +3.479037 
 185   13   15  1   0  0 0.020 01.0  0.00552   -0.56741   -0.55159     -2.788107 
 186    1   15  1   0  0 0.020 01.0  0.00476   +0.45388   +0.46716     +2.925883 
 187    1   16  1   0  0 0.020 01.0  0.00419   +0.36811   +0.37384     +1.556600 
 188    1   17  1   0  0 0.020 01.0  0.00533   +0.54009   +0.54729     +1.333111 
 189    3   15  1   0  0 0.020 01.0  0.01351   +1.76729   +1.77904     +0.664860 
 190    4   18  1   0  0 0.020 01.0  0.00293   +0.17943   +0.17215     -4.057293 
 191    4   18  1   0  0 0.020 01.0  0.00327   +0.22970   +0.23024     +0.235089 
 192    5    6  1   0  0 0.020 01.0  0.00411   +0.35703   +0.36571     +2.431168 
 193    7    8  1   0  0 0.020 01.0  0.00469   -0.44329   -0.45145     +1.840781 
 194   10   12  1   0  0 0.020 01.0  0.00528   -0.53119   -0.52085     -1.946573 
 195   11   13  1   0  0 0.020 01.0  0.00431   -0.38704   -0.39464     +1.963621 
 196   12   13  1   0  0 0.020 01.0  0.00590   +0.62548   +0.62461     -0.139093 
 197   12   16  1   0  0 0.020 01.0  0.00282   +0.16320   +0.15981     -2.077206 
 198   12   17  1   0  0 0.020 01.0  0.00188   -0.02142   -0.02316     +8.123249 
 199   14   15  1   0  0 0.020 01.0  0.00721   -0.82217   -0.80365     -2.252576 
...
Número de medidores SCADA:     491
Número de PMUs:                0
Número de medidas das PMUs:    0
----------------------------------------------------------------------------------

Não há medidas de ângulo.
Não há medidores desabilitados.
============================== Estado Estimado ===================================
                 Barra     Mod(pu)    Ang(graus)              
----------------------------------------------------------------------------------
                    1            1.0393              0.00        
                    2            1.0095              1.18        
                    3            1.0095              3.64        
                    4            0.9945              0.14        
                    5            0.9782             -4.46        
                    6            0.9793             -6.16        
                    7            0.9796             -7.33        
                    8            1.0048             -5.67        
                    9            0.9791             -7.39        
                   10            0.9783             -6.88        
                   11            0.9688             -6.58        
                   12            1.0141             -3.24        
                   13            0.9745             -4.81        
                   14            0.9655             -4.38        
                   15            0.9896             -1.83        
                   16            1.0140             -4.01        
                   17            1.0175             -3.04        
                   18            1.0045             -5.05        
                   19            0.9585             -7.58        
                   20            0.9454             -8.48        
                   21            0.9911             -9.12        
                   22            0.9909             -9.21        
                   23            0.9887             -9.37        
                   24            0.9720            -11.14        
                   25            0.9364            -17.34        
                   26            0.9356            -10.96        
                   27            0.9645            -10.81        
                   28            0.9828            -10.15        
                   29            0.9990             -9.65        
                   30            0.9119            -17.98        
                   31            0.8826            -18.65        
                   32            0.9035            -17.19        
                   33            0.9005            -17.24        
                   34            0.9258            -10.93        
                   35            0.9353            -10.59        
                   36            0.9483            -10.21        
                   37            0.9600             -9.93        
                   38            0.9949             -8.93        
                   39            0.9577            -10.00        
                   40            0.9451            -10.27        
                   41            0.9792            -11.29        
                   42            0.9395            -12.99        
                   43            1.0009             -7.95        
                   44            1.0027             -7.80        
                   45            1.0333             -4.54        
                   46            1.0513             -6.64        
                   47            1.0191             -8.46        
                   48            1.0119             -8.63        
                   49            1.0222             -8.90        
                   50            1.0063             -9.44        
                   51            1.0421             -8.24        
                   52            0.9591            -11.35        
                   53            0.9463            -12.03        
                   54            0.9814            -10.71        
                   55            1.0278             -9.09        
                   56            0.9406            -13.57        
                   57            0.9354            -14.24        
----------------------------------------------------------------------------------
Convergiu em:    3 iteraçoes. 
----------------------------------------------------------------------------------
--- RESIDUOS NORMALIZADOS --------------------------------------------------------
   N    D    P  TP      Real     Medido   Estimado      Med-Est        rn 
----------------------------------------------------------------------------------
 190    4   18  1    +0.1794    +0.1721    +0.2150  -4.2859e-02      0.847 
 350   18    4  1    -0.1794    -0.1724    -0.2150  +4.2659e-02      0.843 
  75    0   18  2    -0.3320    -0.3290    -0.3083  -2.0771e-02      0.427 
  72    0   15  2    -0.2680    -0.2592    -0.2703  +1.1017e-02      0.391 
 351   18    4  1    -0.2297    -0.2356    -0.2150  -2.0631e-02      0.383 
 349   15    3  1    -1.7176    -1.7557    -1.7230  -3.2727e-02      0.303 
 191    4   18  1    +0.2297    +0.2302    +0.2150  +1.5231e-02      0.283 
 199   14   15  1    -0.8222    -0.8036    -0.8243  +2.0661e-02      0.254 
 430   18    4  4    -0.0249    -0.0294    -0.0191  -1.0379e-02      0.254 
 185   13   15  1    -0.5674    -0.5516    -0.5690  +1.7446e-02      0.241 
 412    2    1  4    -1.2635    -1.2755    -1.2548  -2.0682e-02      0.229 
 176    4    6  1    +0.6986    +0.6872    +0.7047  -1.7504e-02      0.226 
 396   51   10  1    -0.3685    -0.3783    -0.3656  -1.2759e-02      0.221 
  61    0    4  2    -0.0000    +0.0029    -0.0005  +3.3873e-03      0.215 
 230   14   46  1    +0.6036    +0.5886    +0.6038  -1.5206e-02      0.215 
 104    0   47  2    -0.3620    -0.3730    -0.3620  -1.0916e-02      0.214 
 115    0    1  5    +1.7211    +1.6908    +1.7105  -1.9616e-02      0.211 
 212    7   29  1    +0.6278    +0.6179    +0.6323  -1.4490e-02      0.210 
 128    0   14  5    -0.0650    -0.0593    -0.0653  +5.9807e-03      0.209 
  16    0   16  6    +1.0148    +1.0287    +1.0140  +1.4727e-02      0.208 
 336    6    4  1    -0.6772    -0.6671    -0.6830  +1.5839e-02      0.206 
  51    0   51  6    +1.0427    +1.0278    +1.0421  -1.4324e-02      0.200 
  10    0   10  6    +0.9790    +0.9920    +0.9783  +1.3615e-02      0.196 
 334    4    3  1    -1.6425    -1.6482    -1.6282  -2.0038e-02      0.193 
 431   18    4  4    -0.0126    -0.0114    -0.0191  +7.6210e-03      0.191 
   6    0    6  6    +0.9800    +0.9926    +0.9793  +1.3200e-02      0.190 
  43    0   43  6    +1.0010    +0.9878    +1.0009  -1.3175e-02      0.188 
 276   12   13  4    +0.4805    +0.4891    +0.4770  +1.2101e-02      0.187 
 270    4   18  4    +0.0429    +0.0468    +0.0389  +7.8853e-03      0.187 
  54    0   54  6    +0.9829    +0.9685    +0.9814  -1.2899e-02      0.186 
   3    0    3  6    +1.0101    +0.9964    +1.0095  -1.3134e-02      0.186 
 403   45   44  1    +0.4847    +0.4981    +0.4857  +1.2438e-02      0.185 
  48    0   48  6    +1.0129    +0.9989    +1.0119  -1.3003e-02      0.184 
   2    0    2  6    +1.0100    +0.9966    +1.0095  -1.2961e-02      0.184 
  36    0   36  6    +0.9488    +0.9360    +0.9483  -1.2337e-02      0.181 
 206   24   25  1    +0.0834    +0.0882    +0.0799  +8.3053e-03      0.181 
  78    0   21  2    -0.0000    +0.0027    -0.0030  +5.7750e-03      0.180 
 346   15    1  1    -0.4466    -0.4601    -0.4486  -1.1531e-02      0.179 
 186    1   15  1    +0.4539    +0.4672    +0.4559  +1.1290e-02      0.175 
 251    9   55  1    +0.2624    +0.2552    +0.2641  -8.9003e-03      0.175 
  53    0   53  6    +0.9487    +0.9581    +0.9463  +1.1810e-02      0.174 
 122    0    8  5    +0.7294    +0.7475    +0.7363  +1.1163e-02      0.172 
 243   44   45  1    -0.4710    -0.4834    -0.4719  -1.1469e-02      0.172 
 411   55    9  1    -0.2624    -0.2728    -0.2641  -8.7197e-03      0.171 
  42    0   42  6    +0.9403    +0.9281    +0.9395  -1.1407e-02      0.171 
  23    0   23  6    +0.9894    +0.9769    +0.9887  -1.1858e-02      0.170 
  57    0   57  6    +0.9355    +0.9467    +0.9354  +1.1288e-02      0.170 
 362   20   21  1    +0.0059    +0.0064    +0.0129  -6.4398e-03      0.169 
 361   20   19  1    -0.0339    -0.0292    -0.0360  +6.7870e-03      0.169 
 130    0   16  5    -0.0370    -0.0412    -0.0356  -5.5766e-03      0.169 
 162    0   48  5    +0.0000    +0.0012    -0.0031  +4.3199e-03      0.168 
  39    0   39  6    +0.9579    +0.9692    +0.9577  +1.1499e-02      0.168 
  20    0   20  6    +0.9465    +0.9566    +0.9454  +1.1197e-02      0.168 
   1    0    1  6    +1.0400    +1.0273    +1.0393  -1.1954e-02      0.167 
  50    0   50  6    +1.0069    +1.0180    +1.0063  +1.1701e-02      0.167 
 433    8    7  4    +0.2595    +0.2544    +0.2633  -8.8951e-03      0.166 
  17    0   17  6    +1.0184    +1.0292    +1.0175  +1.1704e-02      0.165 
 382   39   37  1    -0.0492    -0.0530    -0.0466  -6.3837e-03      0.164 
 429   15    3  4    +0.2117    +0.2056    +0.2137  -8.1744e-03      0.163 
 236   10   51  1    +0.3685    +0.3562    +0.3656  -9.3707e-03      0.162 
 320   53   54  4    -0.0419    -0.0476    -0.0409  -6.6483e-03      0.162 
   8    0    8  6    +1.0050    +1.0162    +1.0048  +1.1363e-02      0.161 
 389   45   15  1    -0.4847    -0.4753    -0.4859  +1.0611e-02      0.161 
 470   46   14  4    -0.2965    -0.2869    -0.2959  +9.0224e-03      0.161 
 103    0   46  2    +0.0000    -0.0036    +0.0001  -3.7586e-03      0.160 
 102    0   45  2    +0.0000    -0.0040    -0.0001  -3.8311e-03      0.160 
 132    0   18  5    -0.1200    -0.1248    -0.1312  +6.3869e-03      0.160 
 347   16    1  1    -0.3623    -0.3743    -0.3644  -9.9289e-03      0.160 
 386   42   41  1    -0.1031    -0.0961    -0.1034  +7.2382e-03      0.160 
 300   36   37  4    -0.1269    -0.1335    -0.1266  -6.8362e-03      0.158 
 348   17    1  1    -0.5334    -0.5244    -0.5349  +1.0431e-02      0.156 
 119    0    5  5    -0.0490    -0.0532    -0.0482  -5.0510e-03      0.156 
 395   51   50  1    +0.1485    +0.1414    +0.1490  -7.5258e-03      0.155 
 460   37   36  4    +0.1295    +0.1226    +0.1293  -6.7388e-03      0.155 
 474   50   49  4    -0.0567    -0.0614    -0.0550  -6.3348e-03      0.155 
 195   11   13  1    -0.3870    -0.3946    -0.3852  -9.4151e-03      0.154 
 426   15    1  4    -0.4971    -0.4845    -0.4949  +1.0347e-02      0.153 
  45    0   45  6    +1.0337    +1.0442    +1.0333  +1.0868e-02      0.152 
 385   41   11  1    -0.1108    -0.1161    -0.1089  -7.2180e-03      0.149 
 345   15   13  1    +0.5765    +0.5674    +0.5782  -1.0831e-02      0.149 
 202   21   20  1    -0.0059    -0.0072    -0.0129  +5.6698e-03      0.149 
 371   29   28  1    +0.2296    +0.2202    +0.2275  -7.3464e-03      0.149 
 333    3    2  1    +0.4604    +0.4706    +0.4612  +9.3823e-03      0.148 
 319   52   53  4    +0.0251    +0.0195    +0.0250  -5.4983e-03      0.145 
 268    1   17  4    +0.0876    +0.0943    +0.0881  +6.1490e-03      0.144 
 164    0   50  5    -0.1280    -0.1207    -0.1265  +5.7543e-03      0.144 
 166    0   52  5    -0.0270    -0.0239    -0.0286  +4.6742e-03      0.143 
  37    0   37  6    +0.9604    +0.9503    +0.9600  -9.7492e-03      0.142 
 269    3   15  4    -0.1036    -0.1104    -0.1043  -6.1050e-03      0.142 
  56    0   56  6    +0.9408    +0.9501    +0.9406  +9.5033e-03      0.142 
 424   14   13  4    -0.2333    -0.2411    -0.2335  -7.5693e-03      0.142 
 313   48   49  4    -0.0756    -0.0822    -0.0759  -6.3493e-03      0.142 
 450   28   27  4    +0.0814    +0.0753    +0.0812  -5.9347e-03      0.140 
...